<?xml version="1.0" encoding="UTF-8"?>

<!-- generated on 03/24/19 19:37:50 by Eclipse SUMO netedit Version 1.0.1
<configuration xmlns:xsi="http://www.w3.org/2001/XMLSchema-instance" xsi:noNamespaceSchemaLocation="http://sumo.dlr.de/xsd/netconvertConfiguration.xsd">

    <input>
        <sumo-net-file value="D:\Documentos\Faculdade\2019.1\Projeto%20Final%20I\Controle-Semaforico-Do-Wallace\inga.net.xml"/>
    </input>

    <output>
        <output-file value="D:\Documentos\Faculdade\2019.1\Projeto%20Final%20I\Controle-Semaforico-Do-Wallace\inga.net.xml"/>
        <output.street-names value="true"/>
    </output>

    <processing>
        <offset.disable-normalization value="true"/>
        <lefthand value="false"/>
    </processing>

    <junctions>
        <no-turnarounds value="true"/>
        <junctions.corner-detail value="5"/>
        <junctions.limit-turn-speed value="5.5"/>
        <rectangular-lane-cut value="false"/>
    </junctions>

    <pedestrian>
        <walkingareas value="false"/>
    </pedestrian>

</configuration>
-->

<net version="1.0" junctionCornerDetail="5" limitTurnSpeed="5.50" xmlns:xsi="http://www.w3.org/2001/XMLSchema-instance" xsi:noNamespaceSchemaLocation="http://sumo.dlr.de/xsd/net_file.xsd">

    <location netOffset="-692085.18,2534246.16" convBoundary="0.00,0.00,1513.09,767.08" origBoundary="-43.127248,-22.905153,-43.112523,-22.898220" projParameter="+proj=utm +zone=23 +ellps=WGS84 +datum=WGS84 +units=m +no_defs"/>

    <type id="highway.secondary" priority="7" numLanes="2" speed="27.78" disallow="tram rail_urban rail rail_electric ship" oneway="0"/>
    <type id="highway.secondary_link" priority="6" numLanes="1" speed="22.22" disallow="tram rail_urban rail rail_electric ship" oneway="0"/>
    <type id="highway.service" priority="2" numLanes="1" speed="5.56" allow="delivery bicycle pedestrian" oneway="0"/>
    <type id="highway.tertiary" priority="6" numLanes="1" speed="22.22" disallow="tram rail_urban rail rail_electric ship" oneway="0"/>
    <type id="highway.tertiary_link" priority="5" numLanes="1" speed="22.22" disallow="tram rail_urban rail rail_electric ship" oneway="0"/>

    <edge id=":1342675288_0" function="internal">
        <lane id=":1342675288_0_0" index="0" disallow="tram rail_urban rail rail_electric ship" speed="11.11" length="0.29" shape="468.08,145.72 468.39,145.68"/>
        <lane id=":1342675288_0_1" index="1" disallow="tram rail_urban rail rail_electric ship" speed="11.11" length="0.29" shape="468.57,148.88 468.84,148.84"/>
    </edge>
    <edge id=":1342704483_0" function="internal">
        <lane id=":1342704483_0_0" index="0" disallow="tram rail_urban rail rail_electric ship" speed="11.11" length="16.19" shape="202.91,403.22 198.62,401.06 195.62,399.70 192.54,398.53 188.00,396.98"/>
    </edge>
    <edge id=":1342704483_1" function="internal">
        <lane id=":1342704483_1_0" index="0" disallow="tram rail_urban rail rail_electric ship" speed="11.11" length="16.74" shape="202.91,403.22 199.47,400.92 196.79,397.95 194.88,394.30 193.74,389.97"/>
    </edge>
    <edge id=":1342704483_2" function="internal">
        <lane id=":1342704483_2_0" index="0" disallow="tram rail_urban rail rail_electric ship" speed="11.11" length="16.65" shape="204.37,400.37 199.95,398.15 196.87,396.74 193.70,395.55 189.03,393.95"/>
    </edge>
    <edge id=":1342704483_3" function="internal">
        <lane id=":1342704483_3_0" index="0" disallow="tram rail_urban rail rail_electric ship" speed="10.77" length="13.73" shape="204.37,400.37 201.57,398.49 199.39,396.05 197.84,393.04 196.90,389.46"/>
    </edge>
    <edge id=":1342704483_4" function="internal">
        <lane id=":1342704483_4_0" index="0" disallow="tram rail_urban rail rail_electric ship" speed="7.84" length="11.66" shape="193.99,405.73 193.97,402.78 192.96,400.34 190.97,398.41 188.00,396.98"/>
    </edge>
    <edge id=":1342704483_5" function="internal">
        <lane id=":1342704483_5_0" index="0" disallow="tram rail_urban rail rail_electric ship" speed="11.11" length="15.88" shape="193.99,405.73 194.61,401.07 194.77,397.84 194.47,394.62 193.74,389.97"/>
    </edge>
    <edge id=":1342704483_6" function="internal">
        <lane id=":1342704483_6_0" index="0" disallow="tram rail_urban rail rail_electric ship" speed="9.13" length="6.52" shape="197.16,406.19 197.15,402.04 196.27,399.84"/>
    </edge>
    <edge id=":1342704483_7" function="internal">
        <lane id=":1342704483_7_0" index="0" disallow="tram rail_urban rail rail_electric ship" speed="11.11" length="16.85" shape="197.16,406.19 197.82,401.24 197.98,397.82 197.67,394.39 196.90,389.46"/>
    </edge>
    <edge id=":1342704483_8" function="internal">
        <lane id=":1342704483_8_0" index="0" speed="9.13" length="9.64" shape="196.27,399.84 195.78,398.62 193.08,395.92 189.03,393.95"/>
    </edge>
    <edge id=":1342704485_0" function="internal">
        <lane id=":1342704485_0_0" index="0" disallow="tram rail_urban rail rail_electric ship" speed="11.11" length="0.30" shape="441.95,410.71 441.66,410.73"/>
        <lane id=":1342704485_0_1" index="1" disallow="tram rail_urban rail rail_electric ship" speed="11.11" length="0.30" shape="441.72,407.51 441.42,407.54"/>
    </edge>
    <edge id=":1346338585_0" function="internal">
        <lane id=":1346338585_0_0" index="0" disallow="tram rail_urban rail rail_electric ship" speed="11.11" length="0.24" shape="524.51,176.04 524.56,176.33"/>
        <lane id=":1346338585_0_1" index="1" disallow="tram rail_urban rail rail_electric ship" speed="11.11" length="0.24" shape="521.36,176.62 521.40,176.81"/>
    </edge>
    <edge id=":1346338586_0" function="internal">
        <lane id=":1346338586_0_0" index="0" disallow="tram rail_urban rail rail_electric ship" speed="11.11" length="8.21" shape="533.35,234.54 533.47,236.94 533.16,238.61 532.86,240.28 532.96,242.69"/>
        <lane id=":1346338586_0_1" index="1" disallow="tram rail_urban rail rail_electric ship" speed="11.11" length="8.21" shape="530.19,235.01 530.30,237.42 530.00,239.09 529.69,240.75 529.80,243.16"/>
    </edge>
    <edge id=":1924391166_0" function="internal">
        <lane id=":1924391166_0_0" index="0" disallow="tram rail_urban rail rail_electric ship" speed="3.65" length="4.67" shape="504.36,90.39 504.98,89.09 505.72,88.59 506.57,88.87 507.52,89.95"/>
    </edge>
    <edge id=":321742213_0" function="internal">
        <lane id=":321742213_0_0" index="0" disallow="tram rail_urban rail rail_electric ship" speed="8.01" length="14.16" shape="163.40,202.04 163.32,198.15 164.50,195.17 166.94,193.09 170.63,191.92"/>
    </edge>
    <edge id=":321742213_1" function="internal">
        <lane id=":321742213_1_0" index="0" disallow="tram rail_urban rail rail_electric ship" speed="6.52" length="9.02" shape="166.56,201.53 166.51,199.05 167.26,197.15 168.81,195.82 171.16,195.08"/>
    </edge>
    <edge id=":321742213_2" function="internal">
        <lane id=":321742213_2_0" index="0" disallow="tram rail_urban rail rail_electric ship" speed="11.11" length="14.36" shape="156.47,194.29 170.63,191.92"/>
        <lane id=":321742213_2_1" index="1" disallow="tram rail_urban rail rail_electric ship" speed="11.11" length="14.36" shape="157.00,197.45 171.16,195.08"/>
    </edge>
    <edge id=":321742217_0" function="internal">
        <lane id=":321742217_0_0" index="0" disallow="tram rail_urban rail rail_electric ship" speed="11.11" length="0.29" shape="413.60,154.14 413.86,154.10"/>
        <lane id=":321742217_0_1" index="1" disallow="tram rail_urban rail rail_electric ship" speed="11.11" length="0.29" shape="414.04,157.30 414.35,157.26"/>
    </edge>
    <edge id=":5477383170_0" function="internal">
        <lane id=":5477383170_0_0" index="0" disallow="tram rail_urban rail rail_electric ship" speed="3.65" length="4.67" shape="1512.84,549.01 1514.15,549.61 1514.67,550.34 1514.40,551.19 1513.34,552.17"/>
    </edge>
    <edge id=":637547377_0" function="internal">
        <lane id=":637547377_0_0" index="0" disallow="tram rail_urban rail rail_electric ship" speed="11.11" length="0.26" shape="311.74,168.32 312.04,168.28"/>
        <lane id=":637547377_0_1" index="1" disallow="tram rail_urban rail rail_electric ship" speed="11.11" length="0.26" shape="312.26,171.48 312.48,171.45"/>
    </edge>
    <edge id=":931250712_0" function="internal">
        <lane id=":931250712_0_0" index="0" disallow="tram rail_urban rail rail_electric ship" speed="11.11" length="0.29" shape="347.99,417.69 347.68,417.72"/>
        <lane id=":931250712_0_1" index="1" disallow="tram rail_urban rail rail_electric ship" speed="11.11" length="0.29" shape="347.76,414.50 347.49,414.52"/>
    </edge>
    <edge id=":cluster_1924391161_1924391163_1924391165_2528545481_0" function="internal">
        <lane id=":cluster_1924391161_1924391163_1924391165_2528545481_0_0" index="0" disallow="tram rail_urban rail rail_electric ship" speed="19.45" length="23.95" shape="515.52,124.11 519.24,147.70"/>
        <lane id=":cluster_1924391161_1924391163_1924391165_2528545481_0_1" index="1" disallow="tram rail_urban rail rail_electric ship" speed="19.45" length="23.95" shape="512.35,124.55 516.10,148.28"/>
    </edge>
    <edge id=":cluster_1924391161_1924391163_1924391165_2528545481_2" function="internal">
        <lane id=":cluster_1924391161_1924391163_1924391165_2528545481_2_0" index="0" disallow="tram rail_urban rail rail_electric ship" speed="8.94" length="17.98" shape="501.23,141.07 504.09,139.73 505.84,136.68 506.48,131.91 506.02,125.43"/>
    </edge>
    <edge id=":cluster_1924391161_1924391163_1924391165_2528545481_3" function="internal">
        <lane id=":cluster_1924391161_1924391163_1924391165_2528545481_3_0" index="0" disallow="tram rail_urban rail rail_electric ship" speed="9.46" length="20.24" shape="501.23,141.07 505.48,139.53 508.22,136.34 509.46,131.50 509.19,124.99"/>
    </edge>
    <edge id=":cluster_1924391161_1924391163_1924391165_2528545481_4" function="internal">
        <lane id=":cluster_1924391161_1924391163_1924391165_2528545481_4_0" index="0" disallow="tram rail_urban rail rail_electric ship" speed="9.37" length="19.19" shape="501.67,144.23 508.96,143.58 514.31,143.94 517.74,145.31 519.24,147.70"/>
    </edge>
    <edge id=":cluster_1924391161_1924391163_1924391165_2528545481_5" function="internal">
        <lane id=":cluster_1924391161_1924391163_1924391165_2528545481_5_0" index="0" disallow="tram rail_urban rail rail_electric ship" speed="8.68" length="16.33" shape="501.67,144.23 507.57,143.79 511.94,144.31 514.78,145.81 516.10,148.28"/>
    </edge>
    <edge id=":cluster_1924394413_320591270_0" function="internal">
        <lane id=":cluster_1924394413_320591270_0_0" index="0" disallow="tram rail_urban rail rail_electric ship" speed="7.62" length="13.97" shape="559.93,408.21 557.38,408.08 555.20,409.61 553.40,412.81 551.96,417.68"/>
    </edge>
    <edge id=":cluster_1924394413_320591270_1" function="internal">
        <lane id=":cluster_1924394413_320591270_1_0" index="0" disallow="tram rail_urban rail rail_electric ship" speed="8.23" length="16.51" shape="559.93,408.21 556.04,407.63 552.90,408.91 550.50,412.03 548.84,417.00"/>
    </edge>
    <edge id=":cluster_1924394413_320591270_2" function="internal">
        <lane id=":cluster_1924394413_320591270_2_0" index="0" disallow="tram rail_urban rail rail_electric ship" speed="13.89" length="16.54" shape="561.00,405.19 556.50,403.70 553.30,403.02 550.02,402.94 545.28,403.25"/>
        <lane id=":cluster_1924394413_320591270_2_1" index="1" disallow="tram rail_urban rail rail_electric ship" speed="13.89" length="16.54" shape="561.00,405.19 556.35,403.13 553.19,401.36 549.95,400.22 545.05,400.06"/>
    </edge>
    <edge id=":cluster_1924394413_320591270_4" function="internal">
        <lane id=":cluster_1924394413_320591270_4_0" index="0" disallow="tram rail_urban rail rail_electric ship" speed="8.30" length="10.43" shape="556.44,391.92 557.01,394.26 558.31,396.24 560.35,397.87 563.12,399.15"/>
    </edge>
    <edge id=":cluster_1924394413_320591270_5" function="internal">
        <lane id=":cluster_1924394413_320591270_5_0" index="0" disallow="tram rail_urban rail rail_electric ship" speed="8.98" length="12.34" shape="556.44,391.92 557.05,395.76 558.19,398.74 559.86,400.88 562.06,402.17"/>
    </edge>
    <edge id=":cluster_1924394413_320591270_6" function="internal">
        <lane id=":cluster_1924394413_320591270_6_0" index="0" disallow="tram rail_urban rail rail_electric ship" speed="13.89" length="25.54" shape="553.25,392.18 553.79,400.16 553.80,406.04 553.21,411.36 551.96,417.68"/>
        <lane id=":cluster_1924394413_320591270_6_1" index="1" disallow="tram rail_urban rail rail_electric ship" speed="13.89" length="25.54" shape="553.25,392.18 553.29,399.99 552.23,405.64 550.57,410.77 548.84,417.00"/>
    </edge>
    <edge id=":cluster_1924394413_320591270_8" function="internal">
        <lane id=":cluster_1924394413_320591270_8_0" index="0" disallow="tram rail_urban rail rail_electric ship" speed="7.70" length="13.17" shape="550.06,392.44 550.08,397.02 549.29,400.35 547.69,402.42 545.28,403.25"/>
    </edge>
    <edge id=":cluster_1924394413_320591270_9" function="internal">
        <lane id=":cluster_1924394413_320591270_9_0" index="0" disallow="tram rail_urban rail rail_electric ship" speed="6.90" length="10.37" shape="550.06,392.44 549.97,395.62 549.10,397.95 547.46,399.43 545.05,400.06"/>
    </edge>

    <edge id="-182099160" from="1924391166" to="cluster_1924391161_1924391163_1924391165_2528545481" name="Rua Doutor Paulo Alves" priority="7" type="highway.secondary" shape="505.94,90.17 510.77,124.77">
        <lane id="-182099160_0" index="0" disallow="tram rail_urban rail rail_electric ship" speed="27.78" length="34.94" shape="510.69,89.51 515.52,124.11">
            <param key="origId" value="182099160"/>
        </lane>
        <lane id="-182099160_1" index="1" disallow="tram rail_urban rail rail_electric ship" speed="27.78" length="34.94" shape="507.52,89.95 512.35,124.55">
            <param key="origId" value="182099160"/>
        </lane>
    </edge>
    <edge id="-569567317#1" from="cluster_1924394413_320591270" to="5477383170" name="Rua Fagundes Varela" priority="7" type="highway.secondary" shape="553.97,401.02 577.71,409.37 652.51,461.15 704.94,496.21 748.90,511.24 899.08,516.61 949.36,517.05 979.13,522.12 1062.94,555.08 1121.91,572.15 1195.45,590.93 1260.83,588.16 1344.33,577.33 1429.38,563.86 1513.09,550.59">
        <lane id="-569567317#1_0" index="0" disallow="tram rail_urban rail rail_electric ship" speed="16.67" length="994.67" shape="563.12,399.15 579.91,405.06 655.21,457.18 707.09,491.87 749.78,506.47 899.19,511.81 949.79,512.25 980.42,517.47 1064.49,550.53 1123.17,567.52 1195.95,586.10 1260.42,583.37 1343.65,572.58 1428.63,559.12 1512.34,545.85">
            <param key="origId" value="569567317"/>
        </lane>
        <lane id="-569567317#1_1" index="1" disallow="tram rail_urban rail rail_electric ship" speed="16.67" length="994.67" shape="562.06,402.17 578.44,407.93 653.41,459.83 705.66,494.76 749.19,509.65 899.12,515.01 949.50,515.45 979.56,520.57 1063.46,553.56 1122.33,570.61 1195.62,589.32 1260.69,586.56 1344.10,575.75 1429.13,562.28 1512.84,549.01">
            <param key="origId" value="569567317"/>
        </lane>
    </edge>
    <edge id="120745919#0" from="320597604" to="1342704483" name="Rua Visconde de Morais" priority="6" type="highway.tertiary" spreadType="center" shape="117.04,628.17 168.84,566.97 177.83,551.64 182.92,492.96 196.70,398.25">
        <lane id="120745919#0_0" index="0" disallow="tram rail_urban rail rail_electric ship" speed="11.11" length="244.77" shape="115.82,627.14 167.53,566.04 176.27,551.14 181.33,492.78 193.99,405.73">
            <param key="origId" value="120745919"/>
        </lane>
        <lane id="120745919#0_1" index="1" disallow="tram rail_urban rail rail_electric ship" speed="11.11" length="244.77" shape="118.26,629.20 170.15,567.90 179.39,552.14 184.51,493.14 197.16,406.19">
            <param key="origId" value="120745919"/>
        </lane>
    </edge>
    <edge id="120745919#1" from="1342704483" to="321742213" name="Rua Visconde de Morais" priority="6" type="highway.tertiary" spreadType="center">
        <lane id="120745919#1_0" index="0" disallow="tram rail_urban rail rail_electric ship" speed="11.11" length="190.36" shape="193.74,389.97 163.40,202.04">
            <param key="origId" value="120745919"/>
        </lane>
        <lane id="120745919#1_1" index="1" disallow="tram rail_urban rail rail_electric ship" speed="11.11" length="190.36" shape="196.90,389.46 166.56,201.53">
            <param key="origId" value="120745919"/>
        </lane>
    </edge>
    <edge id="122606839#1" from="cluster_1924394413_320591270" to="320591274" name="Rua São Sebastião" priority="7" type="highway.secondary" spreadType="center" shape="550.40,417.34 533.21,496.07 531.24,508.32 527.65,518.25 522.18,526.50 485.52,578.84 433.08,657.43 401.23,706.02 357.66,767.08">
        <lane id="122606839#1_0" index="0" disallow="tram rail_urban rail rail_electric ship" speed="16.67" length="404.94" shape="551.96,417.68 534.78,496.37 532.80,508.72 529.09,518.97 523.50,527.40 486.84,579.74 434.41,658.31 402.55,706.92 358.96,768.01">
            <param key="origId" value="122606839"/>
        </lane>
        <lane id="122606839#1_1" index="1" disallow="tram rail_urban rail rail_electric ship" speed="16.67" length="404.94" shape="548.84,417.00 531.64,495.77 529.68,507.92 526.21,517.53 520.86,525.60 484.20,577.94 431.75,656.55 399.91,705.12 356.36,766.15">
            <param key="origId" value="122606839"/>
        </lane>
    </edge>
    <edge id="129786683" from="321742105" to="321742213" name="Rua Presidente Pedreira" priority="6" type="highway.tertiary" spreadType="center" shape="6.64,220.24 76.39,209.30 121.27,201.80 163.83,194.68">
        <lane id="129786683_0" index="0" disallow="tram rail_urban rail rail_electric ship" speed="11.11" length="152.06" shape="6.39,218.66 76.13,207.72 121.01,200.22 156.47,194.29">
            <param key="origId" value="129786683"/>
        </lane>
        <lane id="129786683_1" index="1" disallow="tram rail_urban rail rail_electric ship" speed="11.11" length="152.06" shape="6.89,221.82 76.65,210.88 121.53,203.38 157.00,197.45">
            <param key="origId" value="129786683"/>
        </lane>
    </edge>
    <edge id="182099160" from="cluster_1924391161_1924391163_1924391165_2528545481" to="1924391166" name="Rua Doutor Paulo Alves" priority="7" type="highway.secondary" shape="510.77,124.77 505.94,90.17">
        <lane id="182099160_0" index="0" disallow="tram rail_urban rail rail_electric ship" speed="16.67" length="34.94" shape="506.02,125.43 501.19,90.83">
            <param key="origId" value="182099160"/>
        </lane>
        <lane id="182099160_1" index="1" disallow="tram rail_urban rail rail_electric ship" speed="16.67" length="34.94" shape="509.19,124.99 504.36,90.39">
            <param key="origId" value="182099160"/>
        </lane>
    </edge>
    <edge id="183032534#0" from="321742213" to="637547377" name="Rua Presidente Pedreira" priority="6" type="highway.tertiary" spreadType="center" shape="163.83,194.68 223.94,184.63 312.13,169.88">
        <lane id="183032534#0_0" index="0" disallow="tram rail_urban rail rail_electric ship" speed="11.11" length="143.07" shape="170.63,191.92 223.68,183.05 311.74,168.32">
            <param key="origId" value="183032534"/>
        </lane>
        <lane id="183032534#0_1" index="1" disallow="tram rail_urban rail rail_electric ship" speed="11.11" length="143.07" shape="171.16,195.08 224.20,186.21 312.26,171.48">
            <param key="origId" value="183032534"/>
        </lane>
    </edge>
    <edge id="183032534#1" from="637547377" to="321742217" name="Rua Presidente Pedreira" priority="6" type="highway.tertiary" spreadType="center">
        <lane id="183032534#1_0" index="0" disallow="tram rail_urban rail rail_electric ship" speed="11.11" length="102.54" shape="312.04,168.28 413.60,154.14">
            <param key="origId" value="183032534"/>
        </lane>
        <lane id="183032534#1_1" index="1" disallow="tram rail_urban rail rail_electric ship" speed="11.11" length="102.54" shape="312.48,171.45 414.04,157.30">
            <param key="origId" value="183032534"/>
        </lane>
    </edge>
    <edge id="183032534#2" from="321742217" to="1342675288" name="Rua Presidente Pedreira" priority="6" type="highway.tertiary" spreadType="center">
        <lane id="183032534#2_0" index="0" disallow="tram rail_urban rail rail_electric ship" speed="11.11" length="54.87" shape="413.86,154.10 468.08,145.72">
            <param key="origId" value="183032534"/>
        </lane>
        <lane id="183032534#2_1" index="1" disallow="tram rail_urban rail rail_electric ship" speed="11.11" length="54.87" shape="414.35,157.26 468.57,148.88">
            <param key="origId" value="183032534"/>
        </lane>
    </edge>
    <edge id="183032534#3" from="1342675288" to="cluster_1924391161_1924391163_1924391165_2528545481" name="Rua Presidente Pedreira" priority="6" type="highway.tertiary" spreadType="center" shape="468.47,147.28 501.45,142.65">
        <lane id="183032534#3_0" index="0" disallow="tram rail_urban rail rail_electric ship" speed="11.11" length="33.16" shape="468.39,145.68 501.23,141.07">
            <param key="origId" value="183032534"/>
        </lane>
        <lane id="183032534#3_1" index="1" disallow="tram rail_urban rail rail_electric ship" speed="11.11" length="33.16" shape="468.84,148.84 501.67,144.23">
            <param key="origId" value="183032534"/>
        </lane>
    </edge>
    <edge id="29143326#2" from="cluster_1924391161_1924391163_1924391165_2528545481" to="1346338585" name="Rua Doutor Paulo Alves" priority="7" type="highway.secondary" spreadType="center" shape="517.67,147.99 522.96,176.45">
        <lane id="29143326#2_0" index="0" disallow="tram rail_urban rail rail_electric ship" speed="11.11" length="28.83" shape="519.24,147.70 524.51,176.04">
            <param key="origId" value="29143326"/>
        </lane>
        <lane id="29143326#2_1" index="1" disallow="tram rail_urban rail rail_electric ship" speed="11.11" length="28.83" shape="516.10,148.28 521.36,176.62">
            <param key="origId" value="29143326"/>
        </lane>
    </edge>
    <edge id="29143326#3" from="1346338585" to="1346338586" name="Rua Doutor Paulo Alves" priority="7" type="highway.secondary" spreadType="center">
        <lane id="29143326#3_0" index="0" disallow="tram rail_urban rail rail_electric ship" speed="11.11" length="58.87" shape="524.56,176.33 533.35,234.54">
            <param key="origId" value="29143326"/>
        </lane>
        <lane id="29143326#3_1" index="1" disallow="tram rail_urban rail rail_electric ship" speed="11.11" length="58.87" shape="521.40,176.81 530.19,235.01">
            <param key="origId" value="29143326"/>
        </lane>
    </edge>
    <edge id="29143326#4" from="1346338586" to="cluster_1924394413_320591270" name="Rua Doutor Paulo Alves" priority="7" type="highway.secondary" spreadType="center" shape="532.37,238.73 534.17,250.71 539.56,284.55 546.35,335.18 551.04,364.97 553.97,401.02">
        <lane id="29143326#4_0" index="0" disallow="tram rail_urban rail rail_electric ship" speed="11.11" length="150.92" shape="536.13,242.21 537.33,250.22 542.73,284.09 549.52,334.72 554.22,364.59 556.44,391.92">
            <param key="origId" value="29143326"/>
        </lane>
        <lane id="29143326#4_1" index="1" disallow="tram rail_urban rail rail_electric ship" speed="11.11" length="150.92" shape="532.96,242.69 534.17,250.71 539.56,284.55 546.35,335.18 551.04,364.97 553.25,392.18">
            <param key="origId" value="29143326"/>
        </lane>
        <lane id="29143326#4_2" index="2" disallow="tram rail_urban rail rail_electric ship" speed="11.11" length="150.92" shape="529.80,243.16 531.01,251.20 536.39,285.01 543.18,335.64 547.86,365.35 550.06,392.44">
            <param key="origId" value="29143326"/>
        </lane>
    </edge>
    <edge id="569567317#0" from="5477383170" to="cluster_1924394413_320591270" name="Rua Fagundes Varela" priority="7" type="highway.secondary" shape="1513.09,550.59 1429.38,563.86 1344.33,577.33 1260.83,588.16 1195.45,590.93 1121.91,572.15 1062.94,555.08 979.13,522.12 949.36,517.05 899.08,516.61 748.90,511.24 704.94,496.21 652.51,461.15 577.71,409.37 553.97,401.02">
        <lane id="569567317#0_0" index="0" disallow="tram rail_urban rail rail_electric ship" speed="16.67" length="997.86" shape="1513.84,555.33 1430.13,568.60 1345.01,582.08 1261.24,592.95 1194.95,595.76 1120.65,576.78 1061.39,559.63 977.84,526.77 948.93,521.85 898.97,521.41 748.02,516.01 702.79,500.55 649.81,465.12 575.51,413.68 559.93,408.21">
            <param key="origId" value="569567317"/>
        </lane>
        <lane id="569567317#0_1" index="1" disallow="tram rail_urban rail rail_electric ship" speed="16.67" length="997.86" shape="1513.34,552.17 1429.63,565.44 1344.56,578.91 1260.97,589.76 1195.28,592.54 1121.49,573.69 1062.42,556.60 978.70,523.67 949.22,518.65 899.04,518.21 748.61,512.83 704.22,497.66 651.61,462.47 576.98,410.81 561.00,405.19">
            <param key="origId" value="569567317"/>
        </lane>
    </edge>
    <edge id="79785364#0" from="cluster_1924394413_320591270" to="1342704485" name="Rua Tiradentes" priority="6" type="highway.tertiary" spreadType="center" shape="553.97,401.02 441.69,409.12">
        <lane id="79785364#0_0" index="0" disallow="tram rail_urban rail rail_electric ship" speed="11.11" length="103.59" shape="545.28,403.25 441.95,410.71">
            <param key="origId" value="79785364"/>
        </lane>
        <lane id="79785364#0_1" index="1" disallow="tram rail_urban rail rail_electric ship" speed="11.11" length="103.59" shape="545.05,400.06 441.72,407.51">
            <param key="origId" value="79785364"/>
        </lane>
    </edge>
    <edge id="79785364#1" from="1342704485" to="931250712" name="Rua Tiradentes" priority="6" type="highway.tertiary" spreadType="center">
        <lane id="79785364#1_0" index="0" disallow="tram rail_urban rail rail_electric ship" speed="11.11" length="93.92" shape="441.66,410.73 347.99,417.69">
            <param key="origId" value="79785364"/>
        </lane>
        <lane id="79785364#1_1" index="1" disallow="tram rail_urban rail rail_electric ship" speed="11.11" length="93.92" shape="441.42,407.54 347.76,414.50">
            <param key="origId" value="79785364"/>
        </lane>
    </edge>
    <edge id="79785364#2" from="931250712" to="1342704483" name="Rua Tiradentes" priority="6" type="highway.tertiary" spreadType="center" shape="347.73,416.11 256.99,421.68 237.69,419.16 196.70,398.25">
        <lane id="79785364#2_0" index="0" disallow="tram rail_urban rail rail_electric ship" speed="11.11" length="148.45" shape="347.68,417.72 256.93,423.29 237.21,420.71 202.91,403.22">
            <param key="origId" value="79785364"/>
        </lane>
        <lane id="79785364#2_1" index="1" disallow="tram rail_urban rail rail_electric ship" speed="11.11" length="148.45" shape="347.49,414.52 257.05,420.07 238.17,417.61 204.37,400.37">
            <param key="origId" value="79785364"/>
        </lane>
    </edge>
    <edge id="79785364#3" from="1342704483" to="321742102" name="Rua Tiradentes" priority="6" type="highway.tertiary" spreadType="center" shape="196.70,398.25 120.23,372.22 103.25,370.08 0.00,383.27">
        <lane id="79785364#3_0" index="0" disallow="tram rail_urban rail rail_electric ship" speed="11.11" length="193.33" shape="188.00,396.98 119.87,373.79 103.25,371.69 0.20,384.86">
            <param key="origId" value="79785364"/>
        </lane>
        <lane id="79785364#3_1" index="1" disallow="tram rail_urban rail rail_electric ship" speed="11.11" length="193.33" shape="189.03,393.95 120.59,370.65 103.25,368.47 -0.20,381.68">
            <param key="origId" value="79785364"/>
        </lane>
    </edge>

    <tlLogic id="1342704483" type="static" programID="0" offset="0">
        <phase duration="42" state="GgGGrrrr"/>
        <phase duration="3"  state="yyyyrrrr"/>
        <phase duration="42" state="rrrrGGgG"/>
        <phase duration="3"  state="rrrryyyy"/>
    </tlLogic>
    <tlLogic id="321742213" type="static" programID="0" offset="0">
        <phase duration="42" state="GGrr"/>
        <phase duration="3"  state="yyrr"/>
        <phase duration="42" state="rrGG"/>
        <phase duration="3"  state="rryy"/>
    </tlLogic>
    <tlLogic id="cluster_1924391161_1924391163_1924391165_2528545481" type="static" programID="0" offset="0">
        <phase duration="39" state="GGGGrr"/>
        <phase duration="6"  state="yyyyrr"/>
        <phase duration="39" state="rrrrGG"/>
        <phase duration="6"  state="rrrryy"/>
    </tlLogic>
    <tlLogic id="cluster_1924394413_320591270" type="static" programID="0" offset="0">
        <phase duration="41" state="GGGGrrrrrr"/>
        <phase duration="4"  state="yyyyyyrrrr"/>
        <phase duration="41" state="rrrrGGGGGG"/>
        <phase duration="4"  state="rrrryyyyyy"/>
    </tlLogic>

    <junction id="1342675288" type="priority" x="468.47" y="147.28" incLanes="183032534#2_0 183032534#2_1" intLanes=":1342675288_0_0 :1342675288_0_1" shape="469.06,150.43 468.17,144.09 467.84,144.14 468.81,150.46">
        <request index="0" response="00" foes="00" cont="0"/>
        <request index="1" response="00" foes="00" cont="0"/>
    </junction>
    <junction id="1342675289" type="dead_end" x="456.30" y="24.04" incLanes="" intLanes="" shape="456.30,24.04"/>