<routes>
	<vType id="SUMO_DEFAULT_TYPE" accel="0.8" decel="4.5" sigma="0" length="5" minGap="2" maxSpeed="70"/>

	<route id="centro-praia"	edges="120745919#0 120745919#1 183032534#0 183032534#1 183032534#2 183032534#3 182099160"/>
	<route id="centro-uff"		edges="120745919#0 79785364#3"/>
	<route id="fagundes-praia"	edges="569567317#0 79785364#0 79785364#1 79785364#2 120745919#1 183032534#0 183032534#1 183032534#2 183032534#3 182099160"/>
	<route id="fagundes-uff"	edges="569567317#0 79785364#0 79785364#1 79785364#2 79785364#3"/>
	<route id="fagundes-plaza"	edges="569567317#0 122606839#1"/>
	<route id="uff-praia"		edges="129786683 183032534#0 183032534#1 183032534#2 183032534#3 182099160"/>
	<route id="uff-plaza"		edges="129786683 183032534#0 183032534#1 183032534#2 183032534#3 29143326#2 29143326#3 29143326#4 122606839#1"/>
	<route id="uff-fagundes"	edges="129786683 183032534#0 183032534#1 183032534#2 183032534#3 29143326#2 29143326#3 29143326#4 -569567317#1"/>
	<route id="praia-uff"		edges="-182099160 29143326#2 29143326#3 29143326#4 79785364#0 79785364#1 79785364#2 79785364#3"/>
	<route id="praia-plaza"		edges="-182099160 29143326#2 29143326#3 29143326#4 122606839#1"/>

	<vehicle id="centro-uff_0" 	type="SUMO_DEFAULT_TYPE" route="centro-uff"	depart="0"/>
	<vehicle id="praia-plaza_1" 	type="SUMO_DEFAULT_TYPE" route="praia-plaza"	depart="0"/>
	<vehicle id="fagundes-praia_2" 	type="SUMO_DEFAULT_TYPE" route="fagundes-praia"	depart="1"/>
	<vehicle id="praia-plaza_3" 	type="SUMO_DEFAULT_TYPE" route="praia-plaza"	depart="1"/>
	<vehicle id="centro-uff_4" 	type="SUMO_DEFAULT_TYPE" route="centro-uff"	depart="4"/>
	<vehicle id="uff-fagundes_5" 	type="SUMO_DEFAULT_TYPE" route="uff-fagundes"	depart="6"/>
	<vehicle id="praia-plaza_6" 	type="SUMO_DEFAULT_TYPE" route="praia-plaza"	depart="8"/>
	<vehicle id="fagundes-plaza_7" 	type="SUMO_DEFAULT_TYPE" route="fagundes-plaza"	depart="9"/>
	<vehicle id="centro-praia_8" 	type="SUMO_DEFAULT_TYPE" route="centro-praia"	depart="10"/>
	<vehicle id="fagundes-plaza_9" 	type="SUMO_DEFAULT_TYPE" route="fagundes-plaza"	depart="12"/>
	<vehicle id="uff-plaza_10" 	type="SUMO_DEFAULT_TYPE" route="uff-plaza"	depart="12"/>
	<vehicle id="centro-uff_11" 	type="SUMO_DEFAULT_TYPE" route="centro-uff"	depart="13"/>
	<vehicle id="uff-fagundes_12" 	type="SUMO_DEFAULT_TYPE" route="uff-fagundes"	depart="19"/>
	<vehicle id="uff-fagundes_13" 	type="SUMO_DEFAULT_TYPE" route="uff-fagundes"	depart="20"/>
	<vehicle id="fagundes-plaza_14" 	type="SUMO_DEFAULT_TYPE" route="fagundes-plaza"	depart="22"/>
	<vehicle id="praia-plaza_15" 	type="SUMO_DEFAULT_TYPE" route="praia-plaza"	depart="26"/>
	<vehicle id="centro-praia_16" 	type="SUMO_DEFAULT_TYPE" route="centro-praia"	depart="29"/>
	<vehicle id="uff-fagundes_17" 	type="SUMO_DEFAULT_TYPE" route="uff-fagundes"	depart="29"/>
	<vehicle id="fagundes-plaza_18" 	type="SUMO_DEFAULT_TYPE" route="fagundes-plaza"	depart="32"/>
	<vehicle id="fagundes-praia_19" 	type="SUMO_DEFAULT_TYPE" route="fagundes-praia"	depart="34"/>
	<vehicle id="praia-uff_20" 	type="SUMO_DEFAULT_TYPE" route="praia-uff"	depart="36"/>
	<vehicle id="fagundes-plaza_21" 	type="SUMO_DEFAULT_TYPE" route="fagundes-plaza"	depart="39"/>
	<vehicle id="uff-praia_22" 	type="SUMO_DEFAULT_TYPE" route="uff-praia"	depart="41"/>
	<vehicle id="uff-fagundes_23" 	type="SUMO_DEFAULT_TYPE" route="uff-fagundes"	depart="42"/>
	<vehicle id="praia-plaza_24" 	type="SUMO_DEFAULT_TYPE" route="praia-plaza"	depart="46"/>
	<vehicle id="centro-uff_25" 	type="SUMO_DEFAULT_TYPE" route="centro-uff"	depart="48"/>
	<vehicle id="fagundes-uff_26" 	type="SUMO_DEFAULT_TYPE" route="fagundes-uff"	depart="49"/>
	<vehicle id="centro-uff_27" 	type="SUMO_DEFAULT_TYPE" route="centro-uff"	depart="50"/>
	<vehicle id="fagundes-plaza_28" 	type="SUMO_DEFAULT_TYPE" route="fagundes-plaza"	depart="50"/>
	<vehicle id="praia-uff_29" 	type="SUMO_DEFAULT_TYPE" route="praia-uff"	depart="50"/>
	<vehicle id="praia-uff_30" 	type="SUMO_DEFAULT_TYPE" route="praia-uff"	depart="51"/>
	<vehicle id="praia-uff_31" 	type="SUMO_DEFAULT_TYPE" route="praia-uff"	depart="52"/>
	<vehicle id="fagundes-uff_32" 	type="SUMO_DEFAULT_TYPE" route="fagundes-uff"	depart="54"/>
	<vehicle id="praia-plaza_33" 	type="SUMO_DEFAULT_TYPE" route="praia-plaza"	depart="58"/>
	<vehicle id="praia-uff_34" 	type="SUMO_DEFAULT_TYPE" route="praia-uff"	depart="59"/>
	<vehicle id="uff-fagundes_35" 	type="SUMO_DEFAULT_TYPE" route="uff-fagundes"	depart="63"/>
	<vehicle id="centro-uff_36" 	type="SUMO_DEFAULT_TYPE" route="centro-uff"	depart="65"/>
	<vehicle id="praia-uff_37" 	type="SUMO_DEFAULT_TYPE" route="praia-uff"	depart="65"/>
	<vehicle id="fagundes-plaza_38" 	type="SUMO_DEFAULT_TYPE" route="fagundes-plaza"	depart="68"/>
	<vehicle id="uff-plaza_39" 	type="SUMO_DEFAULT_TYPE" route="uff-plaza"	depart="71"/>
	<vehicle id="praia-uff_40" 	type="SUMO_DEFAULT_TYPE" route="praia-uff"	depart="72"/>
	<vehicle id="uff-fagundes_41" 	type="SUMO_DEFAULT_TYPE" route="uff-fagundes"	depart="81"/>
	<vehicle id="uff-plaza_42" 	type="SUMO_DEFAULT_TYPE" route="uff-plaza"	depart="82"/>
	<vehicle id="centro-uff_43" 	type="SUMO_DEFAULT_TYPE" route="centro-uff"	depart="85"/>
	<vehicle id="fagundes-plaza_44" 	type="SUMO_DEFAULT_TYPE" route="fagundes-plaza"	depart="86"/>
	<vehicle id="fagundes-praia_45" 	type="SUMO_DEFAULT_TYPE" route="fagundes-praia"	depart="88"/>
	<vehicle id="praia-uff_46" 	type="SUMO_DEFAULT_TYPE" route="praia-uff"	depart="90"/>
	<vehicle id="uff-plaza_47" 	type="SUMO_DEFAULT_TYPE" route="uff-plaza"	depart="95"/>
	<vehicle id="uff-plaza_48" 	type="SUMO_DEFAULT_TYPE" route="uff-plaza"	depart="96"/>
	<vehicle id="centro-uff_49" 	type="SUMO_DEFAULT_TYPE" route="centro-uff"	depart="97"/>
	<vehicle id="fagundes-uff_50" 	type="SUMO_DEFAULT_TYPE" route="fagundes-uff"	depart="101"/>
	<vehicle id="uff-plaza_51" 	type="SUMO_DEFAULT_TYPE" route="uff-plaza"	depart="102"/>
	<vehicle id="fagundes-uff_52" 	type="SUMO_DEFAULT_TYPE" route="fagundes-uff"	depart="103"/>
	<vehicle id="fagundes-plaza_53" 	type="SUMO_DEFAULT_TYPE" route="fagundes-plaza"	depart="103"/>
	<vehicle id="praia-plaza_54" 	type="SUMO_DEFAULT_TYPE" route="praia-plaza"	depart="103"/>
	<vehicle id="praia-plaza_55" 	type="SUMO_DEFAULT_TYPE" route="praia-plaza"	depart="104"/>
	<vehicle id="fagundes-plaza_56" 	type="SUMO_DEFAULT_TYPE" route="fagundes-plaza"	depart="106"/>
	<vehicle id="fagundes-uff_57" 	type="SUMO_DEFAULT_TYPE" route="fagundes-uff"	depart="113"/>
	<vehicle id="praia-plaza_58" 	type="SUMO_DEFAULT_TYPE" route="praia-plaza"	depart="113"/>
	<vehicle id="praia-plaza_59" 	type="SUMO_DEFAULT_TYPE" route="praia-plaza"	depart="114"/>
	<vehicle id="praia-uff_60" 	type="SUMO_DEFAULT_TYPE" route="praia-uff"	depart="116"/>
	<vehicle id="fagundes-plaza_61" 	type="SUMO_DEFAULT_TYPE" route="fagundes-plaza"	depart="117"/>
	<vehicle id="fagundes-plaza_62" 	type="SUMO_DEFAULT_TYPE" route="fagundes-plaza"	depart="118"/>
	<vehicle id="uff-praia_63" 	type="SUMO_DEFAULT_TYPE" route="uff-praia"	depart="118"/>
	<vehicle id="fagundes-uff_64" 	type="SUMO_DEFAULT_TYPE" route="fagundes-uff"	depart="119"/>
	<vehicle id="centro-praia_65" 	type="SUMO_DEFAULT_TYPE" route="centro-praia"	depart="124"/>
	<vehicle id="fagundes-plaza_66" 	type="SUMO_DEFAULT_TYPE" route="fagundes-plaza"	depart="124"/>
	<vehicle id="centro-uff_67" 	type="SUMO_DEFAULT_TYPE" route="centro-uff"	depart="126"/>
	<vehicle id="centro-praia_68" 	type="SUMO_DEFAULT_TYPE" route="centro-praia"	depart="128"/>
	<vehicle id="fagundes-praia_69" 	type="SUMO_DEFAULT_TYPE" route="fagundes-praia"	depart="132"/>
	<vehicle id="fagundes-uff_70" 	type="SUMO_DEFAULT_TYPE" route="fagundes-uff"	depart="137"/>
	<vehicle id="fagundes-plaza_71" 	type="SUMO_DEFAULT_TYPE" route="fagundes-plaza"	depart="137"/>
	<vehicle id="praia-plaza_72" 	type="SUMO_DEFAULT_TYPE" route="praia-plaza"	depart="137"/>
	<vehicle id="centro-uff_73" 	type="SUMO_DEFAULT_TYPE" route="centro-uff"	depart="139"/>
	<vehicle id="centro-uff_74" 	type="SUMO_DEFAULT_TYPE" route="centro-uff"	depart="140"/>
	<vehicle id="praia-uff_75" 	type="SUMO_DEFAULT_TYPE" route="praia-uff"	depart="140"/>
	<vehicle id="praia-plaza_76" 	type="SUMO_DEFAULT_TYPE" route="praia-plaza"	depart="142"/>
	<vehicle id="uff-fagundes_77" 	type="SUMO_DEFAULT_TYPE" route="uff-fagundes"	depart="143"/>
	<vehicle id="uff-plaza_78" 	type="SUMO_DEFAULT_TYPE" route="uff-plaza"	depart="144"/>
	<vehicle id="centro-praia_79" 	type="SUMO_DEFAULT_TYPE" route="centro-praia"	depart="145"/>
	<vehicle id="fagundes-praia_80" 	type="SUMO_DEFAULT_TYPE" route="fagundes-praia"	depart="145"/>
	<vehicle id="praia-plaza_81" 	type="SUMO_DEFAULT_TYPE" route="praia-plaza"	depart="148"/>
	<vehicle id="fagundes-uff_82" 	type="SUMO_DEFAULT_TYPE" route="fagundes-uff"	depart="154"/>
	<vehicle id="uff-plaza_83" 	type="SUMO_DEFAULT_TYPE" route="uff-plaza"	depart="155"/>
	<vehicle id="fagundes-praia_84" 	type="SUMO_DEFAULT_TYPE" route="fagundes-praia"	depart="158"/>
	<vehicle id="praia-uff_85" 	type="SUMO_DEFAULT_TYPE" route="praia-uff"	depart="160"/>
	<vehicle id="praia-plaza_86" 	type="SUMO_DEFAULT_TYPE" route="praia-plaza"	depart="160"/>
	<vehicle id="uff-fagundes_87" 	type="SUMO_DEFAULT_TYPE" route="uff-fagundes"	depart="165"/>
	<vehicle id="fagundes-uff_88" 	type="SUMO_DEFAULT_TYPE" route="fagundes-uff"	depart="166"/>
	<vehicle id="centro-uff_89" 	type="SUMO_DEFAULT_TYPE" route="centro-uff"	depart="172"/>
	<vehicle id="praia-uff_90" 	type="SUMO_DEFAULT_TYPE" route="praia-uff"	depart="173"/>
	<vehicle id="uff-fagundes_91" 	type="SUMO_DEFAULT_TYPE" route="uff-fagundes"	depart="174"/>
	<vehicle id="fagundes-praia_92" 	type="SUMO_DEFAULT_TYPE" route="fagundes-praia"	depart="180"/>
	<vehicle id="uff-fagundes_93" 	type="SUMO_DEFAULT_TYPE" route="uff-fagundes"	depart="180"/>
	<vehicle id="uff-plaza_94" 	type="SUMO_DEFAULT_TYPE" route="uff-plaza"	depart="183"/>
	<vehicle id="fagundes-plaza_95" 	type="SUMO_DEFAULT_TYPE" route="fagundes-plaza"	depart="187"/>
	<vehicle id="uff-fagundes_96" 	type="SUMO_DEFAULT_TYPE" route="uff-fagundes"	depart="187"/>
	<vehicle id="praia-uff_97" 	type="SUMO_DEFAULT_TYPE" route="praia-uff"	depart="190"/>
	<vehicle id="fagundes-plaza_98" 	type="SUMO_DEFAULT_TYPE" route="fagundes-plaza"	depart="192"/>
	<vehicle id="fagundes-praia_99" 	type="SUMO_DEFAULT_TYPE" route="fagundes-praia"	depart="193"/>
	<vehicle id="fagundes-plaza_100" 	type="SUMO_DEFAULT_TYPE" route="fagundes-plaza"	depart="193"/>
	<vehicle id="praia-plaza_101" 	type="SUMO_DEFAULT_TYPE" route="praia-plaza"	depart="193"/>
	<vehicle id="centro-uff_102" 	type="SUMO_DEFAULT_TYPE" route="centro-uff"	depart="196"/>
	<vehicle id="fagundes-praia_103" 	type="SUMO_DEFAULT_TYPE" route="fagundes-praia"	depart="196"/>
	<vehicle id="praia-uff_104" 	type="SUMO_DEFAULT_TYPE" route="praia-uff"	depart="197"/>
	<vehicle id="centro-uff_105" 	type="SUMO_DEFAULT_TYPE" route="centro-uff"	depart="198"/>
	<vehicle id="fagundes-plaza_106" 	type="SUMO_DEFAULT_TYPE" route="fagundes-plaza"	depart="198"/>
	<vehicle id="centro-praia_107" 	type="SUMO_DEFAULT_TYPE" route="centro-praia"	depart="199"/>
	<vehicle id="fagundes-plaza_108" 	type="SUMO_DEFAULT_TYPE" route="fagundes-plaza"	depart="200"/>
	<vehicle id="centro-praia_109" 	type="SUMO_DEFAULT_TYPE" route="centro-praia"	depart="205"/>
	<vehicle id="fagundes-praia_110" 	type="SUMO_DEFAULT_TYPE" route="fagundes-praia"	depart="210"/>
	<vehicle id="fagundes-uff_111" 	type="SUMO_DEFAULT_TYPE" route="fagundes-uff"	depart="210"/>
	<vehicle id="fagundes-praia_112" 	type="SUMO_DEFAULT_TYPE" route="fagundes-praia"	depart="211"/>
	<vehicle id="centro-praia_113" 	type="SUMO_DEFAULT_TYPE" route="centro-praia"	depart="212"/>
	<vehicle id="fagundes-praia_114" 	type="SUMO_DEFAULT_TYPE" route="fagundes-praia"	depart="212"/>
	<vehicle id="uff-plaza_115" 	type="SUMO_DEFAULT_TYPE" route="uff-plaza"	depart="212"/>
	<vehicle id="fagundes-praia_116" 	type="SUMO_DEFAULT_TYPE" route="fagundes-praia"	depart="215"/>
	<vehicle id="fagundes-uff_117" 	type="SUMO_DEFAULT_TYPE" route="fagundes-uff"	depart="215"/>
	<vehicle id="fagundes-praia_118" 	type="SUMO_DEFAULT_TYPE" route="fagundes-praia"	depart="216"/>
	<vehicle id="uff-fagundes_119" 	type="SUMO_DEFAULT_TYPE" route="uff-fagundes"	depart="216"/>
	<vehicle id="fagundes-praia_120" 	type="SUMO_DEFAULT_TYPE" route="fagundes-praia"	depart="217"/>
	<vehicle id="fagundes-uff_121" 	type="SUMO_DEFAULT_TYPE" route="fagundes-uff"	depart="219"/>
	<vehicle id="centro-uff_122" 	type="SUMO_DEFAULT_TYPE" route="centro-uff"	depart="220"/>
	<vehicle id="centro-uff_123" 	type="SUMO_DEFAULT_TYPE" route="centro-uff"	depart="222"/>
	<vehicle id="centro-praia_124" 	type="SUMO_DEFAULT_TYPE" route="centro-praia"	depart="223"/>
	<vehicle id="praia-uff_125" 	type="SUMO_DEFAULT_TYPE" route="praia-uff"	depart="224"/>
	<vehicle id="fagundes-uff_126" 	type="SUMO_DEFAULT_TYPE" route="fagundes-uff"	depart="232"/>
	<vehicle id="centro-praia_127" 	type="SUMO_DEFAULT_TYPE" route="centro-praia"	depart="233"/>
	<vehicle id="fagundes-praia_128" 	type="SUMO_DEFAULT_TYPE" route="fagundes-praia"	depart="234"/>
	<vehicle id="fagundes-plaza_129" 	type="SUMO_DEFAULT_TYPE" route="fagundes-plaza"	depart="238"/>
	<vehicle id="fagundes-plaza_130" 	type="SUMO_DEFAULT_TYPE" route="fagundes-plaza"	depart="242"/>
	<vehicle id="uff-plaza_131" 	type="SUMO_DEFAULT_TYPE" route="uff-plaza"	depart="242"/>
	<vehicle id="uff-fagundes_132" 	type="SUMO_DEFAULT_TYPE" route="uff-fagundes"	depart="243"/>
	<vehicle id="fagundes-uff_133" 	type="SUMO_DEFAULT_TYPE" route="fagundes-uff"	depart="245"/>
	<vehicle id="praia-uff_134" 	type="SUMO_DEFAULT_TYPE" route="praia-uff"	depart="247"/>
	<vehicle id="uff-plaza_135" 	type="SUMO_DEFAULT_TYPE" route="uff-plaza"	depart="251"/>
	<vehicle id="fagundes-uff_136" 	type="SUMO_DEFAULT_TYPE" route="fagundes-uff"	depart="252"/>
	<vehicle id="uff-plaza_137" 	type="SUMO_DEFAULT_TYPE" route="uff-plaza"	depart="253"/>
	<vehicle id="fagundes-uff_138" 	type="SUMO_DEFAULT_TYPE" route="fagundes-uff"	depart="254"/>
	<vehicle id="fagundes-uff_139" 	type="SUMO_DEFAULT_TYPE" route="fagundes-uff"	depart="256"/>
	<vehicle id="praia-uff_140" 	type="SUMO_DEFAULT_TYPE" route="praia-uff"	depart="256"/>
	<vehicle id="uff-fagundes_141" 	type="SUMO_DEFAULT_TYPE" route="uff-fagundes"	depart="258"/>
	<vehicle id="praia-uff_142" 	type="SUMO_DEFAULT_TYPE" route="praia-uff"	depart="261"/>
	<vehicle id="uff-fagundes_143" 	type="SUMO_DEFAULT_TYPE" route="uff-fagundes"	depart="263"/>
	<vehicle id="centro-praia_144" 	type="SUMO_DEFAULT_TYPE" route="centro-praia"	depart="264"/>
	<vehicle id="centro-uff_145" 	type="SUMO_DEFAULT_TYPE" route="centro-uff"	depart="264"/>
	<vehicle id="centro-uff_146" 	type="SUMO_DEFAULT_TYPE" route="centro-uff"	depart="266"/>
	<vehicle id="uff-fagundes_147" 	type="SUMO_DEFAULT_TYPE" route="uff-fagundes"	depart="268"/>
	<vehicle id="centro-praia_148" 	type="SUMO_DEFAULT_TYPE" route="centro-praia"	depart="269"/>
	<vehicle id="uff-praia_149" 	type="SUMO_DEFAULT_TYPE" route="uff-praia"	depart="273"/>
	<vehicle id="praia-uff_150" 	type="SUMO_DEFAULT_TYPE" route="praia-uff"	depart="274"/>
	<vehicle id="uff-praia_151" 	type="SUMO_DEFAULT_TYPE" route="uff-praia"	depart="275"/>
	<vehicle id="fagundes-uff_152" 	type="SUMO_DEFAULT_TYPE" route="fagundes-uff"	depart="276"/>
	<vehicle id="uff-fagundes_153" 	type="SUMO_DEFAULT_TYPE" route="uff-fagundes"	depart="280"/>
	<vehicle id="uff-fagundes_154" 	type="SUMO_DEFAULT_TYPE" route="uff-fagundes"	depart="281"/>
	<vehicle id="uff-praia_155" 	type="SUMO_DEFAULT_TYPE" route="uff-praia"	depart="282"/>
	<vehicle id="uff-plaza_156" 	type="SUMO_DEFAULT_TYPE" route="uff-plaza"	depart="283"/>
	<vehicle id="uff-fagundes_157" 	type="SUMO_DEFAULT_TYPE" route="uff-fagundes"	depart="283"/>
	<vehicle id="fagundes-plaza_158" 	type="SUMO_DEFAULT_TYPE" route="fagundes-plaza"	depart="284"/>
	<vehicle id="centro-praia_159" 	type="SUMO_DEFAULT_TYPE" route="centro-praia"	depart="285"/>
	<vehicle id="uff-fagundes_160" 	type="SUMO_DEFAULT_TYPE" route="uff-fagundes"	depart="285"/>
	<vehicle id="fagundes-uff_161" 	type="SUMO_DEFAULT_TYPE" route="fagundes-uff"	depart="286"/>
	<vehicle id="uff-plaza_162" 	type="SUMO_DEFAULT_TYPE" route="uff-plaza"	depart="289"/>
	<vehicle id="praia-plaza_163" 	type="SUMO_DEFAULT_TYPE" route="praia-plaza"	depart="290"/>
	<vehicle id="fagundes-plaza_164" 	type="SUMO_DEFAULT_TYPE" route="fagundes-plaza"	depart="292"/>
	<vehicle id="fagundes-praia_165" 	type="SUMO_DEFAULT_TYPE" route="fagundes-praia"	depart="293"/>
	<vehicle id="uff-fagundes_166" 	type="SUMO_DEFAULT_TYPE" route="uff-fagundes"	depart="296"/>
	<vehicle id="centro-praia_167" 	type="SUMO_DEFAULT_TYPE" route="centro-praia"	depart="299"/>
	<vehicle id="praia-plaza_168" 	type="SUMO_DEFAULT_TYPE" route="praia-plaza"	depart="301"/>
	<vehicle id="fagundes-uff_169" 	type="SUMO_DEFAULT_TYPE" route="fagundes-uff"	depart="303"/>
	<vehicle id="fagundes-uff_170" 	type="SUMO_DEFAULT_TYPE" route="fagundes-uff"	depart="304"/>
	<vehicle id="fagundes-praia_171" 	type="SUMO_DEFAULT_TYPE" route="fagundes-praia"	depart="306"/>
	<vehicle id="praia-plaza_172" 	type="SUMO_DEFAULT_TYPE" route="praia-plaza"	depart="312"/>
	<vehicle id="fagundes-plaza_173" 	type="SUMO_DEFAULT_TYPE" route="fagundes-plaza"	depart="313"/>
	<vehicle id="centro-uff_174" 	type="SUMO_DEFAULT_TYPE" route="centro-uff"	depart="314"/>
	<vehicle id="centro-praia_175" 	type="SUMO_DEFAULT_TYPE" route="centro-praia"	depart="317"/>
	<vehicle id="fagundes-uff_176" 	type="SUMO_DEFAULT_TYPE" route="fagundes-uff"	depart="318"/>
	<vehicle id="fagundes-plaza_177" 	type="SUMO_DEFAULT_TYPE" route="fagundes-plaza"	depart="320"/>
	<vehicle id="uff-fagundes_178" 	type="SUMO_DEFAULT_TYPE" route="uff-fagundes"	depart="320"/>
	<vehicle id="centro-uff_179" 	type="SUMO_DEFAULT_TYPE" route="centro-uff"	depart="321"/>
	<vehicle id="fagundes-plaza_180" 	type="SUMO_DEFAULT_TYPE" route="fagundes-plaza"	depart="323"/>
	<vehicle id="uff-plaza_181" 	type="SUMO_DEFAULT_TYPE" route="uff-plaza"	depart="325"/>
	<vehicle id="praia-uff_182" 	type="SUMO_DEFAULT_TYPE" route="praia-uff"	depart="329"/>
	<vehicle id="fagundes-uff_183" 	type="SUMO_DEFAULT_TYPE" route="fagundes-uff"	depart="331"/>
	<vehicle id="uff-plaza_184" 	type="SUMO_DEFAULT_TYPE" route="uff-plaza"	depart="332"/>
	<vehicle id="praia-plaza_185" 	type="SUMO_DEFAULT_TYPE" route="praia-plaza"	depart="332"/>
	<vehicle id="praia-plaza_186" 	type="SUMO_DEFAULT_TYPE" route="praia-plaza"	depart="336"/>
	<vehicle id="fagundes-uff_187" 	type="SUMO_DEFAULT_TYPE" route="fagundes-uff"	depart="337"/>
	<vehicle id="centro-uff_188" 	type="SUMO_DEFAULT_TYPE" route="centro-uff"	depart="340"/>
	<vehicle id="uff-plaza_189" 	type="SUMO_DEFAULT_TYPE" route="uff-plaza"	depart="340"/>
	<vehicle id="fagundes-uff_190" 	type="SUMO_DEFAULT_TYPE" route="fagundes-uff"	depart="342"/>
	<vehicle id="centro-praia_191" 	type="SUMO_DEFAULT_TYPE" route="centro-praia"	depart="343"/>
	<vehicle id="centro-uff_192" 	type="SUMO_DEFAULT_TYPE" route="centro-uff"	depart="345"/>
	<vehicle id="centro-uff_193" 	type="SUMO_DEFAULT_TYPE" route="centro-uff"	depart="346"/>
	<vehicle id="praia-plaza_194" 	type="SUMO_DEFAULT_TYPE" route="praia-plaza"	depart="346"/>
	<vehicle id="centro-uff_195" 	type="SUMO_DEFAULT_TYPE" route="centro-uff"	depart="349"/>
	<vehicle id="centro-uff_196" 	type="SUMO_DEFAULT_TYPE" route="centro-uff"	depart="350"/>
	<vehicle id="uff-fagundes_197" 	type="SUMO_DEFAULT_TYPE" route="uff-fagundes"	depart="351"/>
	<vehicle id="uff-fagundes_198" 	type="SUMO_DEFAULT_TYPE" route="uff-fagundes"	depart="352"/>
	<vehicle id="fagundes-plaza_199" 	type="SUMO_DEFAULT_TYPE" route="fagundes-plaza"	depart="354"/>
	<vehicle id="praia-plaza_200" 	type="SUMO_DEFAULT_TYPE" route="praia-plaza"	depart="356"/>
	<vehicle id="fagundes-plaza_201" 	type="SUMO_DEFAULT_TYPE" route="fagundes-plaza"	depart="362"/>
	<vehicle id="uff-plaza_202" 	type="SUMO_DEFAULT_TYPE" route="uff-plaza"	depart="363"/>
	<vehicle id="uff-praia_203" 	type="SUMO_DEFAULT_TYPE" route="uff-praia"	depart="365"/>
	<vehicle id="uff-plaza_204" 	type="SUMO_DEFAULT_TYPE" route="uff-plaza"	depart="368"/>
	<vehicle id="fagundes-praia_205" 	type="SUMO_DEFAULT_TYPE" route="fagundes-praia"	depart="371"/>
	<vehicle id="centro-uff_206" 	type="SUMO_DEFAULT_TYPE" route="centro-uff"	depart="373"/>
	<vehicle id="praia-plaza_207" 	type="SUMO_DEFAULT_TYPE" route="praia-plaza"	depart="373"/>
	<vehicle id="centro-praia_208" 	type="SUMO_DEFAULT_TYPE" route="centro-praia"	depart="374"/>
	<vehicle id="uff-fagundes_209" 	type="SUMO_DEFAULT_TYPE" route="uff-fagundes"	depart="375"/>
	<vehicle id="uff-plaza_210" 	type="SUMO_DEFAULT_TYPE" route="uff-plaza"	depart="376"/>
	<vehicle id="centro-uff_211" 	type="SUMO_DEFAULT_TYPE" route="centro-uff"	depart="380"/>
	<vehicle id="fagundes-plaza_212" 	type="SUMO_DEFAULT_TYPE" route="fagundes-plaza"	depart="384"/>
	<vehicle id="uff-fagundes_213" 	type="SUMO_DEFAULT_TYPE" route="uff-fagundes"	depart="386"/>
	<vehicle id="praia-plaza_214" 	type="SUMO_DEFAULT_TYPE" route="praia-plaza"	depart="386"/>
	<vehicle id="fagundes-plaza_215" 	type="SUMO_DEFAULT_TYPE" route="fagundes-plaza"	depart="390"/>
	<vehicle id="uff-plaza_216" 	type="SUMO_DEFAULT_TYPE" route="uff-plaza"	depart="390"/>
	<vehicle id="fagundes-praia_217" 	type="SUMO_DEFAULT_TYPE" route="fagundes-praia"	depart="391"/>
	<vehicle id="fagundes-uff_218" 	type="SUMO_DEFAULT_TYPE" route="fagundes-uff"	depart="395"/>
	<vehicle id="fagundes-plaza_219" 	type="SUMO_DEFAULT_TYPE" route="fagundes-plaza"	depart="395"/>
	<vehicle id="praia-uff_220" 	type="SUMO_DEFAULT_TYPE" route="praia-uff"	depart="395"/>
	<vehicle id="centro-praia_221" 	type="SUMO_DEFAULT_TYPE" route="centro-praia"	depart="396"/>
	<vehicle id="uff-plaza_222" 	type="SUMO_DEFAULT_TYPE" route="uff-plaza"	depart="396"/>
	<vehicle id="uff-fagundes_223" 	type="SUMO_DEFAULT_TYPE" route="uff-fagundes"	depart="399"/>
	<vehicle id="centro-praia_224" 	type="SUMO_DEFAULT_TYPE" route="centro-praia"	depart="401"/>
	<vehicle id="fagundes-uff_225" 	type="SUMO_DEFAULT_TYPE" route="fagundes-uff"	depart="403"/>
	<vehicle id="centro-uff_226" 	type="SUMO_DEFAULT_TYPE" route="centro-uff"	depart="407"/>
	<vehicle id="uff-plaza_227" 	type="SUMO_DEFAULT_TYPE" route="uff-plaza"	depart="407"/>
	<vehicle id="praia-plaza_228" 	type="SUMO_DEFAULT_TYPE" route="praia-plaza"	depart="407"/>
	<vehicle id="fagundes-plaza_229" 	type="SUMO_DEFAULT_TYPE" route="fagundes-plaza"	depart="409"/>
	<vehicle id="praia-plaza_230" 	type="SUMO_DEFAULT_TYPE" route="praia-plaza"	depart="409"/>
	<vehicle id="centro-uff_231" 	type="SUMO_DEFAULT_TYPE" route="centro-uff"	depart="410"/>
	<vehicle id="fagundes-praia_232" 	type="SUMO_DEFAULT_TYPE" route="fagundes-praia"	depart="414"/>
	<vehicle id="fagundes-praia_233" 	type="SUMO_DEFAULT_TYPE" route="fagundes-praia"	depart="415"/>
	<vehicle id="fagundes-uff_234" 	type="SUMO_DEFAULT_TYPE" route="fagundes-uff"	depart="418"/>
	<vehicle id="uff-plaza_235" 	type="SUMO_DEFAULT_TYPE" route="uff-plaza"	depart="419"/>
	<vehicle id="praia-uff_236" 	type="SUMO_DEFAULT_TYPE" route="praia-uff"	depart="420"/>
	<vehicle id="centro-praia_237" 	type="SUMO_DEFAULT_TYPE" route="centro-praia"	depart="425"/>
	<vehicle id="centro-praia_238" 	type="SUMO_DEFAULT_TYPE" route="centro-praia"	depart="426"/>
	<vehicle id="praia-plaza_239" 	type="SUMO_DEFAULT_TYPE" route="praia-plaza"	depart="429"/>
	<vehicle id="uff-fagundes_240" 	type="SUMO_DEFAULT_TYPE" route="uff-fagundes"	depart="430"/>
	<vehicle id="centro-praia_241" 	type="SUMO_DEFAULT_TYPE" route="centro-praia"	depart="431"/>
	<vehicle id="fagundes-plaza_242" 	type="SUMO_DEFAULT_TYPE" route="fagundes-plaza"	depart="432"/>
	<vehicle id="centro-praia_243" 	type="SUMO_DEFAULT_TYPE" route="centro-praia"	depart="435"/>
	<vehicle id="uff-praia_244" 	type="SUMO_DEFAULT_TYPE" route="uff-praia"	depart="435"/>
	<vehicle id="praia-plaza_245" 	type="SUMO_DEFAULT_TYPE" route="praia-plaza"	depart="435"/>
	<vehicle id="fagundes-uff_246" 	type="SUMO_DEFAULT_TYPE" route="fagundes-uff"	depart="436"/>
	<vehicle id="centro-uff_247" 	type="SUMO_DEFAULT_TYPE" route="centro-uff"	depart="439"/>
	<vehicle id="fagundes-praia_248" 	type="SUMO_DEFAULT_TYPE" route="fagundes-praia"	depart="439"/>
	<vehicle id="centro-uff_249" 	type="SUMO_DEFAULT_TYPE" route="centro-uff"	depart="441"/>
	<vehicle id="centro-uff_250" 	type="SUMO_DEFAULT_TYPE" route="centro-uff"	depart="445"/>
	<vehicle id="fagundes-praia_251" 	type="SUMO_DEFAULT_TYPE" route="fagundes-praia"	depart="445"/>
	<vehicle id="fagundes-plaza_252" 	type="SUMO_DEFAULT_TYPE" route="fagundes-plaza"	depart="446"/>
	<vehicle id="uff-fagundes_253" 	type="SUMO_DEFAULT_TYPE" route="uff-fagundes"	depart="449"/>
	<vehicle id="centro-uff_254" 	type="SUMO_DEFAULT_TYPE" route="centro-uff"	depart="450"/>
	<vehicle id="praia-plaza_255" 	type="SUMO_DEFAULT_TYPE" route="praia-plaza"	depart="453"/>
	<vehicle id="uff-fagundes_256" 	type="SUMO_DEFAULT_TYPE" route="uff-fagundes"	depart="454"/>
	<vehicle id="centro-uff_257" 	type="SUMO_DEFAULT_TYPE" route="centro-uff"	depart="460"/>
	<vehicle id="praia-plaza_258" 	type="SUMO_DEFAULT_TYPE" route="praia-plaza"	depart="460"/>
	<vehicle id="fagundes-praia_259" 	type="SUMO_DEFAULT_TYPE" route="fagundes-praia"	depart="463"/>
	<vehicle id="fagundes-praia_260" 	type="SUMO_DEFAULT_TYPE" route="fagundes-praia"	depart="464"/>
	<vehicle id="uff-plaza_261" 	type="SUMO_DEFAULT_TYPE" route="uff-plaza"	depart="464"/>
	<vehicle id="centro-uff_262" 	type="SUMO_DEFAULT_TYPE" route="centro-uff"	depart="465"/>
	<vehicle id="fagundes-uff_263" 	type="SUMO_DEFAULT_TYPE" route="fagundes-uff"	depart="466"/>
	<vehicle id="uff-fagundes_264" 	type="SUMO_DEFAULT_TYPE" route="uff-fagundes"	depart="468"/>
	<vehicle id="fagundes-plaza_265" 	type="SUMO_DEFAULT_TYPE" route="fagundes-plaza"	depart="469"/>
	<vehicle id="centro-uff_266" 	type="SUMO_DEFAULT_TYPE" route="centro-uff"	depart="470"/>
	<vehicle id="uff-plaza_267" 	type="SUMO_DEFAULT_TYPE" route="uff-plaza"	depart="470"/>
	<vehicle id="centro-praia_268" 	type="SUMO_DEFAULT_TYPE" route="centro-praia"	depart="471"/>
	<vehicle id="centro-praia_269" 	type="SUMO_DEFAULT_TYPE" route="centro-praia"	depart="472"/>
	<vehicle id="fagundes-uff_270" 	type="SUMO_DEFAULT_TYPE" route="fagundes-uff"	depart="472"/>
	<vehicle id="praia-uff_271" 	type="SUMO_DEFAULT_TYPE" route="praia-uff"	depart="472"/>
	<vehicle id="centro-praia_272" 	type="SUMO_DEFAULT_TYPE" route="centro-praia"	depart="473"/>
	<vehicle id="uff-plaza_273" 	type="SUMO_DEFAULT_TYPE" route="uff-plaza"	depart="473"/>
	<vehicle id="centro-praia_274" 	type="SUMO_DEFAULT_TYPE" route="centro-praia"	depart="475"/>
	<vehicle id="uff-fagundes_275" 	type="SUMO_DEFAULT_TYPE" route="uff-fagundes"	depart="476"/>
	<vehicle id="uff-plaza_276" 	type="SUMO_DEFAULT_TYPE" route="uff-plaza"	depart="483"/>
	<vehicle id="praia-uff_277" 	type="SUMO_DEFAULT_TYPE" route="praia-uff"	depart="483"/>
	<vehicle id="fagundes-plaza_278" 	type="SUMO_DEFAULT_TYPE" route="fagundes-plaza"	depart="484"/>
	<vehicle id="fagundes-uff_279" 	type="SUMO_DEFAULT_TYPE" route="fagundes-uff"	depart="485"/>
	<vehicle id="uff-plaza_280" 	type="SUMO_DEFAULT_TYPE" route="uff-plaza"	depart="486"/>
	<vehicle id="fagundes-plaza_281" 	type="SUMO_DEFAULT_TYPE" route="fagundes-plaza"	depart="487"/>
	<vehicle id="fagundes-praia_282" 	type="SUMO_DEFAULT_TYPE" route="fagundes-praia"	depart="488"/>
	<vehicle id="uff-fagundes_283" 	type="SUMO_DEFAULT_TYPE" route="uff-fagundes"	depart="493"/>
	<vehicle id="centro-praia_284" 	type="SUMO_DEFAULT_TYPE" route="centro-praia"	depart="495"/>
	<vehicle id="fagundes-uff_285" 	type="SUMO_DEFAULT_TYPE" route="fagundes-uff"	depart="495"/>
	<vehicle id="praia-plaza_286" 	type="SUMO_DEFAULT_TYPE" route="praia-plaza"	depart="495"/>
	<vehicle id="praia-plaza_287" 	type="SUMO_DEFAULT_TYPE" route="praia-plaza"	depart="500"/>
	<vehicle id="centro-praia_288" 	type="SUMO_DEFAULT_TYPE" route="centro-praia"	depart="501"/>
	<vehicle id="centro-praia_289" 	type="SUMO_DEFAULT_TYPE" route="centro-praia"	depart="502"/>
	<vehicle id="uff-fagundes_290" 	type="SUMO_DEFAULT_TYPE" route="uff-fagundes"	depart="502"/>
	<vehicle id="fagundes-praia_291" 	type="SUMO_DEFAULT_TYPE" route="fagundes-praia"	depart="503"/>
	<vehicle id="centro-praia_292" 	type="SUMO_DEFAULT_TYPE" route="centro-praia"	depart="506"/>
	<vehicle id="centro-uff_293" 	type="SUMO_DEFAULT_TYPE" route="centro-uff"	depart="507"/>
	<vehicle id="fagundes-plaza_294" 	type="SUMO_DEFAULT_TYPE" route="fagundes-plaza"	depart="508"/>
	<vehicle id="fagundes-praia_295" 	type="SUMO_DEFAULT_TYPE" route="fagundes-praia"	depart="510"/>
	<vehicle id="praia-uff_296" 	type="SUMO_DEFAULT_TYPE" route="praia-uff"	depart="510"/>
	<vehicle id="fagundes-uff_297" 	type="SUMO_DEFAULT_TYPE" route="fagundes-uff"	depart="512"/>
	<vehicle id="centro-uff_298" 	type="SUMO_DEFAULT_TYPE" route="centro-uff"	depart="514"/>
	<vehicle id="uff-plaza_299" 	type="SUMO_DEFAULT_TYPE" route="uff-plaza"	depart="517"/>
	<vehicle id="praia-uff_300" 	type="SUMO_DEFAULT_TYPE" route="praia-uff"	depart="522"/>
	<vehicle id="uff-praia_301" 	type="SUMO_DEFAULT_TYPE" route="uff-praia"	depart="524"/>
	<vehicle id="fagundes-praia_302" 	type="SUMO_DEFAULT_TYPE" route="fagundes-praia"	depart="525"/>
	<vehicle id="uff-plaza_303" 	type="SUMO_DEFAULT_TYPE" route="uff-plaza"	depart="527"/>
	<vehicle id="fagundes-plaza_304" 	type="SUMO_DEFAULT_TYPE" route="fagundes-plaza"	depart="532"/>
	<vehicle id="centro-praia_305" 	type="SUMO_DEFAULT_TYPE" route="centro-praia"	depart="534"/>
	<vehicle id="fagundes-uff_306" 	type="SUMO_DEFAULT_TYPE" route="fagundes-uff"	depart="534"/>
	<vehicle id="uff-praia_307" 	type="SUMO_DEFAULT_TYPE" route="uff-praia"	depart="535"/>
	<vehicle id="uff-praia_308" 	type="SUMO_DEFAULT_TYPE" route="uff-praia"	depart="539"/>
	<vehicle id="centro-uff_309" 	type="SUMO_DEFAULT_TYPE" route="centro-uff"	depart="540"/>
	<vehicle id="fagundes-plaza_310" 	type="SUMO_DEFAULT_TYPE" route="fagundes-plaza"	depart="542"/>
	<vehicle id="centro-uff_311" 	type="SUMO_DEFAULT_TYPE" route="centro-uff"	depart="543"/>